protein_ligand
     RDKit          3D

 24 26  0  0  0  0  0  0  0  0999 V2000
   16.0733    2.3565   51.4370 C   0  0  0  0  0  0  0  0  0  0  0  0
   17.4938    2.4564   51.6294 N   0  0  0  0  0  0  0  0  0  0  0  0
   18.1273    3.3479   50.7070 C   0  0  0  0  0  0  0  0  0  0  0  0
   18.1376    1.1659   51.7155 C   0  0  0  0  0  0  0  0  0  0  0  0
   19.2604    1.1381   52.7051 C   0  0  0  0  0  0  0  0  0  0  0  0
   20.5240    1.1718   52.0809 O   0  0  0  0  0  0  0  0  0  0  0  0
   21.7008    0.7436   52.6609 C   0  0  0  0  0  0  0  0  0  0  0  0
   21.7578   -0.1489   53.6594 N   0  0  0  0  0  0  0  0  0  0  0  0
   22.9346   -0.5421   54.2006 C   0  0  0  0  0  0  0  0  0  0  0  0
   24.1274   -0.0337   53.7398 C   0  0  0  0  0  0  0  0  0  0  0  0
   25.3037   -0.4438   54.2998 C   0  0  0  0  0  0  0  0  0  0  0  0
   25.3820   -1.3567   55.3228 C   0  0  0  0  0  0  0  0  0  0  0  0
   24.1792   -1.8700   55.7883 C   0  0  0  0  0  0  0  0  0  0  0  0
   22.9752   -1.4673   55.2340 C   0  0  0  0  0  0  0  0  0  0  0  0
   26.6113   -1.7176   55.8328 O   0  0  0  0  0  0  0  0  0  0  0  0
   27.8349   -1.2019   55.4077 C   0  0  0  0  0  0  0  0  0  0  0  0
   24.0787    0.8677   52.7322 N   0  0  0  0  0  0  0  0  0  0  0  0
   22.8992    1.2577   52.1942 C   0  0  0  0  0  0  0  0  0  0  0  0
   22.9555    2.2300   51.1169 C   0  0  0  0  0  0  0  0  0  0  0  0
   22.0188    3.2332   51.0511 C   0  0  0  0  0  0  0  0  0  0  0  0
   22.0497    4.1748   50.0325 C   0  0  0  0  0  0  0  0  0  0  0  0
   23.0432    4.0951   49.0716 C   0  0  0  0  0  0  0  0  0  0  0  0
   23.9887    3.1014   49.1182 C   0  0  0  0  0  0  0  0  0  0  0  0
   23.9290    2.1865   50.1391 C   0  0  0  0  0  0  0  0  0  0  0  0
  1  2  1  0
  2  3  1  0
  2  4  1  0
  4  5  1  0
  5  6  1  0
  6  7  1  0
  7  8  2  0
  8  9  1  0
  9 10  2  0
 10 11  1  0
 11 12  2  0
 12 13  1  0
 13 14  2  0
 12 15  1  0
 15 16  1  0
 10 17  1  0
 17 18  2  0
 18 19  1  0
 19 20  2  0
 20 21  1  0
 21 22  2  0
 22 23  1  0
 23 24  2  0
 18  7  1  0
 14  9  1  0
 24 19  1  0
M  END
$$$$
