protein_ligand
     RDKit          3D

 18 19  0  0  0  0  0  0  0  0999 V2000
   41.7796    1.5713   65.2296 C   0  0  0  0  0  0  0  0  0  0  0  0
   41.3174    1.3820   63.8275 C   0  0  0  0  0  0  0  0  0  0  0  0
   40.1483    1.9552   63.3711 C   0  0  0  0  0  0  0  0  0  0  0  0
   39.6845    1.8015   62.0702 C   0  0  0  0  0  0  0  0  0  0  0  0
   40.4318    1.0427   61.2090 C   0  0  0  0  0  0  0  0  0  0  0  0
   41.6011    0.4622   61.6446 C   0  0  0  0  0  0  0  0  0  0  0  0
   42.0373    0.6300   62.9363 C   0  0  0  0  0  0  0  0  0  0  0  0
   38.4987    2.4038   61.6697 N   0  0  0  0  0  0  0  0  0  0  0  0
   38.0408    2.8230   60.4048 C   0  0  0  0  0  0  0  0  0  0  0  0
   38.9394    2.5951   59.3173 C   0  0  0  0  0  0  0  0  0  0  0  0
   38.6255    2.9446   58.0345 C   0  0  0  0  0  0  0  0  0  0  0  0
   37.4089    3.5357   57.7657 C   0  0  0  0  0  0  0  0  0  0  0  0
   36.5222    3.7729   58.7703 C   0  0  0  0  0  0  0  0  0  0  0  0
   36.8641    3.4057   60.0920 C   0  0  0  0  0  0  0  0  0  0  0  0
   35.9053    3.7441   61.1222 C   0  0  0  0  0  0  0  0  0  0  0  0
   34.7644    4.1012   60.8793 O   0  0  0  0  0  0  0  0  0  0  0  0
   36.2641    3.6717   62.4711 O   0  0  0  0  0  0  0  0  0  0  0  0
   39.3792    2.7689   64.3580 C   0  0  0  0  0  0  0  0  0  0  0  0
  1  2  1  0
  2  3  2  0
  3  4  1  0
  4  5  2  0
  5  6  1  0
  6  7  2  0
  4  8  1  0
  8  9  1  0
  9 10  2  0
 10 11  1  0
 11 12  2  0
 12 13  1  0
 13 14  2  0
 14 15  1  0
 15 16  2  0
 15 17  1  0
  3 18  1  0
  7  2  1  0
 14  9  1  0
M  END
$$$$
