protein_ligand
     RDKit          3D

 33 36  0  0  0  0  0  0  0  0999 V2000
   38.4105  -49.1173   62.5428 C   0  0  0  0  0  0  0  0  0  0  0  0
   39.7687  -49.0800   63.2159 C   0  0  0  0  0  0  0  0  0  0  0  0
   39.7151  -49.9600   64.4099 C   0  0  0  0  0  0  0  0  0  0  0  0
   40.6355  -49.6436   65.5200 C   0  0  0  0  0  0  0  0  0  0  0  0
   41.5751  -48.4609   65.2280 C   0  0  0  0  0  0  0  0  0  0  0  0
   40.5551  -47.3530   64.8866 C   0  0  0  0  0  0  0  0  0  0  0  0
   40.1922  -47.6703   63.4257 C   0  0  0  0  0  0  0  0  0  0  0  0
   39.1842  -46.6599   62.9527 C   0  0  0  0  0  0  0  0  0  0  0  0
   37.9644  -46.9666   62.9021 O   0  0  0  0  0  0  0  0  0  0  0  0
   39.5614  -45.3582   62.5556 N   0  0  0  0  0  0  0  0  0  0  0  0
   38.5554  -44.4967   62.0359 C   0  0  0  0  0  0  0  0  0  0  0  0
   37.2345  -44.5775   62.4294 C   0  0  0  0  0  0  0  0  0  0  0  0
   36.2467  -43.7501   61.9359 C   0  0  0  0  0  0  0  0  0  0  0  0
   36.5850  -42.7892   61.0008 C   0  0  0  0  0  0  0  0  0  0  0  0
   37.9012  -42.6855   60.5882 C   0  0  0  0  0  0  0  0  0  0  0  0
   38.8716  -43.5303   61.1014 C   0  0  0  0  0  0  0  0  0  0  0  0
   41.1903  -46.0392   64.9556 C   0  0  0  0  0  0  0  0  0  0  0  0
   40.9802  -45.1673   64.0748 O   0  0  0  0  0  0  0  0  0  0  0  0
   42.0800  -45.7510   66.0716 C   0  0  0  0  0  0  0  0  0  0  0  0
   42.6375  -46.7233   66.7718 C   0  0  0  0  0  0  0  0  0  0  0  0
   42.3512  -48.1037   66.4135 C   0  0  0  0  0  0  0  0  0  0  0  0
   42.8002  -49.0156   67.1695 O   0  0  0  0  0  0  0  0  0  0  0  0
   43.4937  -46.4069   67.8459 O   0  0  0  0  0  0  0  0  0  0  0  0
   43.3265  -46.9656   69.1178 C   0  0  0  0  0  0  0  0  0  0  0  0
   42.4030  -44.3450   66.4748 C   0  0  0  0  0  0  0  0  0  0  0  0
   41.2919  -50.7725   66.1690 C   0  0  0  0  0  0  0  0  0  0  0  0
   42.5439  -50.9874   65.9591 O   0  0  0  0  0  0  0  0  0  0  0  0
   40.6327  -51.6960   67.0536 C   0  0  0  0  0  0  0  0  0  0  0  0
   39.6199  -51.3332   67.9035 C   0  0  0  0  0  0  0  0  0  0  0  0
   38.9790  -52.2385   68.7657 C   0  0  0  0  0  0  0  0  0  0  0  0
   39.3970  -53.5434   68.7451 C   0  0  0  0  0  0  0  0  0  0  0  0
   40.4112  -53.9347   67.9022 C   0  0  0  0  0  0  0  0  0  0  0  0
   41.0168  -53.0350   67.0748 C   0  0  0  0  0  0  0  0  0  0  0  0
  1  2  1  0
  2  3  1  0
  3  4  1  0
  4  5  1  0
  5  6  1  0
  6  7  1  0
  7  8  1  0
  8  9  2  0
  8 10  1  0
 10 11  1  0
 11 12  2  0
 12 13  1  0
 13 14  2  0
 14 15  1  0
 15 16  2  0
  6 17  1  0
 17 18  2  0
 17 19  1  0
 19 20  2  0
 20 21  1  0
 21 22  2  0
 20 23  1  0
 23 24  1  0
 19 25  1  0
  4 26  1  0
 26 27  2  0
 26 28  1  0
 28 29  2  0
 29 30  1  0
 30 31  2  0
 31 32  1  0
 32 33  2  0
  7  2  1  0
 21  5  1  0
 16 11  1  0
 33 28  1  0
M  END
$$$$
