protein_ligand
     RDKit          3D

 33 36  0  0  0  0  0  0  0  0999 V2000
   38.4573  -48.4187   66.2693 C   0  0  0  0  0  0  0  0  0  0  0  0
   39.0232  -47.0855   65.8205 C   0  0  0  0  0  0  0  0  0  0  0  0
   38.1189  -46.5269   64.7845 C   0  0  0  0  0  0  0  0  0  0  0  0
   38.7158  -45.6056   63.7973 C   0  0  0  0  0  0  0  0  0  0  0  0
   40.2053  -45.3112   64.0457 C   0  0  0  0  0  0  0  0  0  0  0  0
   40.7907  -46.7401   64.0460 C   0  0  0  0  0  0  0  0  0  0  0  0
   40.4583  -47.2382   65.4630 C   0  0  0  0  0  0  0  0  0  0  0  0
   40.9710  -48.6441   65.6087 C   0  0  0  0  0  0  0  0  0  0  0  0
   40.8941  -49.4436   64.6395 O   0  0  0  0  0  0  0  0  0  0  0  0
   41.5442  -49.1090   66.8127 N   0  0  0  0  0  0  0  0  0  0  0  0
   41.8320  -50.4977   66.9271 C   0  0  0  0  0  0  0  0  0  0  0  0
   40.8648  -51.4705   66.7716 C   0  0  0  0  0  0  0  0  0  0  0  0
   41.1268  -52.8210   66.8790 C   0  0  0  0  0  0  0  0  0  0  0  0
   42.4179  -53.2315   67.1557 C   0  0  0  0  0  0  0  0  0  0  0  0
   43.4074  -52.2784   67.3165 C   0  0  0  0  0  0  0  0  0  0  0  0
   43.1146  -50.9293   67.2029 C   0  0  0  0  0  0  0  0  0  0  0  0
   42.2407  -46.6948   63.8740 C   0  0  0  0  0  0  0  0  0  0  0  0
   43.0013  -47.4196   64.5644 O   0  0  0  0  0  0  0  0  0  0  0  0
   42.7986  -45.7881   62.8806 C   0  0  0  0  0  0  0  0  0  0  0  0
   42.1101  -44.7511   62.4367 C   0  0  0  0  0  0  0  0  0  0  0  0
   40.7713  -44.5192   62.9559 C   0  0  0  0  0  0  0  0  0  0  0  0
   40.0865  -43.5917   62.4311 O   0  0  0  0  0  0  0  0  0  0  0  0
   42.6821  -43.8944   61.4745 O   0  0  0  0  0  0  0  0  0  0  0  0
   43.3943  -42.7449   61.8340 C   0  0  0  0  0  0  0  0  0  0  0  0
   44.1729  -45.9885   62.3193 C   0  0  0  0  0  0  0  0  0  0  0  0
   37.9325  -44.4275   63.4433 C   0  0  0  0  0  0  0  0  0  0  0  0
   38.3763  -43.2557   63.7390 O   0  0  0  0  0  0  0  0  0  0  0  0
   36.6626  -44.4697   62.7683 C   0  0  0  0  0  0  0  0  0  0  0  0
   35.9742  -45.6311   62.5292 C   0  0  0  0  0  0  0  0  0  0  0  0
   34.7344  -45.6675   61.8697 C   0  0  0  0  0  0  0  0  0  0  0  0
   34.1998  -44.4772   61.4510 C   0  0  0  0  0  0  0  0  0  0  0  0
   34.8692  -43.2970   61.6778 C   0  0  0  0  0  0  0  0  0  0  0  0
   36.0722  -43.2898   62.3208 C   0  0  0  0  0  0  0  0  0  0  0  0
  1  2  1  0
  2  3  1  0
  3  4  1  0
  4  5  1  0
  5  6  1  0
  6  7  1  0
  7  8  1  0
  8  9  2  0
  8 10  1  0
 10 11  1  0
 11 12  2  0
 12 13  1  0
 13 14  2  0
 14 15  1  0
 15 16  2  0
  6 17  1  0
 17 18  2  0
 17 19  1  0
 19 20  2  0
 20 21  1  0
 21 22  2  0
 20 23  1  0
 23 24  1  0
 19 25  1  0
  4 26  1  0
 26 27  2  0
 26 28  1  0
 28 29  2  0
 29 30  1  0
 30 31  2  0
 31 32  1  0
 32 33  2  0
  7  2  1  0
 21  5  1  0
 16 11  1  0
 33 28  1  0
M  END
$$$$
