protein_ligand
     RDKit          3D

 30 33  0  0  0  0  0  0  0  0999 V2000
    8.6191   11.2214   -2.4852 C   0  0  0  0  0  0  0  0  0  0  0  0
    7.0836   11.3773   -2.3902 C   0  0  0  0  0  0  0  0  0  0  0  0
    7.9201   12.2853   -3.2009 C   0  0  0  0  0  0  0  0  0  0  0  0
    7.6506   12.3053   -4.6635 C   0  0  0  0  0  0  0  0  0  0  0  0
    8.4450   11.6633   -5.4473 O   0  0  0  0  0  0  0  0  0  0  0  0
    6.5818   12.9891   -5.2741 N   0  0  0  0  0  0  0  0  0  0  0  0
    6.4144   13.2541   -6.6555 C   0  0  0  0  0  0  0  0  0  0  0  0
    7.2953   12.9483   -7.6551 C   0  0  0  0  0  0  0  0  0  0  0  0
    7.0901   13.3250   -8.9643 C   0  0  0  0  0  0  0  0  0  0  0  0
    5.9550   14.0486   -9.3460 C   0  0  0  0  0  0  0  0  0  0  0  0
    5.0538   14.3683   -8.3737 C   0  0  0  0  0  0  0  0  0  0  0  0
    5.3044   13.9612   -7.0476 C   0  0  0  0  0  0  0  0  0  0  0  0
    3.9078   15.1174   -8.6448 N   0  0  0  0  0  0  0  0  0  0  0  0
    3.0149   15.1973   -9.7001 C   0  0  0  0  0  0  0  0  0  0  0  0
    2.3298   16.3974   -9.8399 N   0  0  0  0  0  0  0  0  0  0  0  0
    1.4402   16.6351  -10.7915 C   0  0  0  0  0  0  0  0  0  0  0  0
    1.1672   15.6738  -11.6851 N   0  0  0  0  0  0  0  0  0  0  0  0
    1.7987   14.4856  -11.6037 C   0  0  0  0  0  0  0  0  0  0  0  0
    2.7350   14.2223  -10.6077 C   0  0  0  0  0  0  0  0  0  0  0  0
    1.5204   13.4905  -12.5727 N   0  0  0  0  0  0  0  0  0  0  0  0
    1.6996   12.1298  -12.2340 C   0  0  0  0  0  0  0  0  0  0  0  0
    0.7223   11.3852  -11.6417 C   0  0  0  0  0  0  0  0  0  0  0  0
    0.9795   10.0477  -11.3892 C   0  0  0  0  0  0  0  0  0  0  0  0
    2.1704    9.4802  -11.7187 C   0  0  0  0  0  0  0  0  0  0  0  0
    3.1812   10.2322  -12.3267 C   0  0  0  0  0  0  0  0  0  0  0  0
    2.9212   11.5578  -12.5737 C   0  0  0  0  0  0  0  0  0  0  0  0
    4.4797    9.6400  -12.7017 C   0  0  0  0  0  0  0  0  0  0  0  0
    5.2574    9.5934  -11.5533 F   0  0  0  0  0  0  0  0  0  0  0  0
    4.2829    8.3723  -13.1773 F   0  0  0  0  0  0  0  0  0  0  0  0
    5.0903   10.4610  -13.6172 F   0  0  0  0  0  0  0  0  0  0  0  0
  1  2  1  0
  2  3  1  0
  3  4  1  0
  4  5  2  0
  4  6  1  0
  6  7  1  0
  7  8  2  0
  8  9  1  0
  9 10  2  0
 10 11  1  0
 11 12  2  0
 11 13  1  0
 13 14  1  0
 14 15  2  0
 15 16  1  0
 16 17  2  0
 17 18  1  0
 18 19  2  0
 18 20  1  0
 20 21  1  0
 21 22  2  0
 22 23  1  0
 23 24  2  0
 24 25  1  0
 25 26  2  0
 25 27  1  0
 27 28  1  0
 27 29  1  0
 27 30  1  0
  3  1  1  0
 12  7  1  0
 19 14  1  0
 26 21  1  0
M  END
$$$$
