protein_ligand
     RDKit          3D

 30 33  0  0  0  0  0  0  0  0999 V2000
   -7.8940   10.4813   -8.5557 C   0  0  0  0  0  0  0  0  0  0  0  0
   -7.3616    9.9031   -9.8873 C   0  0  0  0  0  0  0  0  0  0  0  0
   -6.8310   11.1503   -9.3008 C   0  0  0  0  0  0  0  0  0  0  0  0
   -5.3899   11.1486   -8.9325 C   0  0  0  0  0  0  0  0  0  0  0  0
   -4.8055   10.0198   -8.7282 O   0  0  0  0  0  0  0  0  0  0  0  0
   -4.5989   12.3032   -8.7778 N   0  0  0  0  0  0  0  0  0  0  0  0
   -3.2296   12.3596   -8.4194 C   0  0  0  0  0  0  0  0  0  0  0  0
   -2.6707   13.1645   -7.4663 C   0  0  0  0  0  0  0  0  0  0  0  0
   -1.3119   13.2178   -7.2458 C   0  0  0  0  0  0  0  0  0  0  0  0
   -0.4202   12.4411   -7.9937 C   0  0  0  0  0  0  0  0  0  0  0  0
   -0.9447   11.6245   -8.9518 C   0  0  0  0  0  0  0  0  0  0  0  0
   -2.3413   11.6016   -9.1419 C   0  0  0  0  0  0  0  0  0  0  0  0
   -0.1383   10.8368   -9.7747 N   0  0  0  0  0  0  0  0  0  0  0  0
    1.1937   10.8568  -10.1524 C   0  0  0  0  0  0  0  0  0  0  0  0
    1.5979    9.8711  -11.0435 N   0  0  0  0  0  0  0  0  0  0  0  0
    2.8349    9.7481  -11.4997 C   0  0  0  0  0  0  0  0  0  0  0  0
    3.7713   10.6155  -11.0901 N   0  0  0  0  0  0  0  0  0  0  0  0
    3.4427   11.5958  -10.2250 C   0  0  0  0  0  0  0  0  0  0  0  0
    2.1466   11.7355   -9.7367 C   0  0  0  0  0  0  0  0  0  0  0  0
    4.4370   12.5218   -9.8242 N   0  0  0  0  0  0  0  0  0  0  0  0
    4.4958   12.9272   -8.4713 C   0  0  0  0  0  0  0  0  0  0  0  0
    3.4018   13.3734   -7.7898 C   0  0  0  0  0  0  0  0  0  0  0  0
    3.5526   13.7059   -6.4535 C   0  0  0  0  0  0  0  0  0  0  0  0
    4.7539   13.5944   -5.8263 C   0  0  0  0  0  0  0  0  0  0  0  0
    5.8838   13.1380   -6.5133 C   0  0  0  0  0  0  0  0  0  0  0  0
    5.7288   12.8108   -7.8380 C   0  0  0  0  0  0  0  0  0  0  0  0
    7.1974   13.0001   -5.8554 C   0  0  0  0  0  0  0  0  0  0  0  0
    8.1137   12.6479   -6.8364 F   0  0  0  0  0  0  0  0  0  0  0  0
    7.5562   14.1966   -5.2972 F   0  0  0  0  0  0  0  0  0  0  0  0
    7.1238   11.9856   -4.9333 F   0  0  0  0  0  0  0  0  0  0  0  0
  1  2  1  0
  2  3  1  0
  3  4  1  0
  4  5  2  0
  4  6  1  0
  6  7  1  0
  7  8  2  0
  8  9  1  0
  9 10  2  0
 10 11  1  0
 11 12  2  0
 11 13  1  0
 13 14  1  0
 14 15  2  0
 15 16  1  0
 16 17  2  0
 17 18  1  0
 18 19  2  0
 18 20  1  0
 20 21  1  0
 21 22  2  0
 22 23  1  0
 23 24  2  0
 24 25  1  0
 25 26  2  0
 25 27  1  0
 27 28  1  0
 27 29  1  0
 27 30  1  0
  3  1  1  0
 12  7  1  0
 19 14  1  0
 26 21  1  0
M  END
$$$$
