protein_ligand
     RDKit          3D

 30 33  0  0  0  0  0  0  0  0999 V2000
  -18.9852  -14.1038   17.5261 C   0  0  0  0  0  0  0  0  0  0  0  0
  -20.2859  -14.3702   18.3189 C   0  0  0  0  0  0  0  0  0  0  0  0
  -20.2354  -13.4343   17.1775 C   0  0  0  0  0  0  0  0  0  0  0  0
  -21.0931  -13.7677   16.0090 C   0  0  0  0  0  0  0  0  0  0  0  0
  -22.3667  -13.8476   16.1797 O   0  0  0  0  0  0  0  0  0  0  0  0
  -20.6164  -14.0161   14.7075 N   0  0  0  0  0  0  0  0  0  0  0  0
  -21.3898  -14.2558   13.5452 C   0  0  0  0  0  0  0  0  0  0  0  0
  -20.9680  -14.8724   12.4003 C   0  0  0  0  0  0  0  0  0  0  0  0
  -21.7647  -14.9831   11.2819 C   0  0  0  0  0  0  0  0  0  0  0  0
  -23.0642  -14.4649   11.2575 C   0  0  0  0  0  0  0  0  0  0  0  0
  -23.5179  -13.8453   12.3845 C   0  0  0  0  0  0  0  0  0  0  0  0
  -22.6682  -13.7562   13.5058 C   0  0  0  0  0  0  0  0  0  0  0  0
  -24.7854  -13.2647   12.4501 N   0  0  0  0  0  0  0  0  0  0  0  0
  -25.4735  -12.3243   11.7021 C   0  0  0  0  0  0  0  0  0  0  0  0
  -26.6843  -11.8866   12.2231 N   0  0  0  0  0  0  0  0  0  0  0  0
  -27.4654  -10.9955   11.6319 C   0  0  0  0  0  0  0  0  0  0  0  0
  -27.0856  -10.4707   10.4583 N   0  0  0  0  0  0  0  0  0  0  0  0
  -25.9204  -10.8545    9.8995 C   0  0  0  0  0  0  0  0  0  0  0  0
  -25.0907  -11.7911   10.5097 C   0  0  0  0  0  0  0  0  0  0  0  0
  -25.5194  -10.2692    8.6734 N   0  0  0  0  0  0  0  0  0  0  0  0
  -24.2905   -9.5734    8.6113 C   0  0  0  0  0  0  0  0  0  0  0  0
  -24.2167   -8.2318    8.3766 C   0  0  0  0  0  0  0  0  0  0  0  0
  -22.9673   -7.6337    8.3785 C   0  0  0  0  0  0  0  0  0  0  0  0
  -21.8369   -8.3538    8.6074 C   0  0  0  0  0  0  0  0  0  0  0  0
  -21.8982   -9.7302    8.8496 C   0  0  0  0  0  0  0  0  0  0  0  0
  -23.1392  -10.3181    8.8455 C   0  0  0  0  0  0  0  0  0  0  0  0
  -20.6882  -10.5343    9.1086 C   0  0  0  0  0  0  0  0  0  0  0  0
  -19.8255   -9.7487    9.8598 F   0  0  0  0  0  0  0  0  0  0  0  0
  -21.0275  -11.6544    9.8173 F   0  0  0  0  0  0  0  0  0  0  0  0
  -20.0890  -10.8273    7.9086 F   0  0  0  0  0  0  0  0  0  0  0  0
  1  2  1  0
  2  3  1  0
  3  4  1  0
  4  5  2  0
  4  6  1  0
  6  7  1  0
  7  8  2  0
  8  9  1  0
  9 10  2  0
 10 11  1  0
 11 12  2  0
 11 13  1  0
 13 14  1  0
 14 15  2  0
 15 16  1  0
 16 17  2  0
 17 18  1  0
 18 19  2  0
 18 20  1  0
 20 21  1  0
 21 22  2  0
 22 23  1  0
 23 24  2  0
 24 25  1  0
 25 26  2  0
 25 27  1  0
 27 28  1  0
 27 29  1  0
 27 30  1  0
  3  1  1  0
 12  7  1  0
 19 14  1  0
 26 21  1  0
M  END
$$$$
