protein_ligand
     RDKit          3D

 50 52  0  0  0  0  0  0  0  0999 V2000
   -5.0034   17.8706   29.3351 C   0  0  0  0  0  0  0  0  0  0  0  0
   -5.5869   17.3031   28.0308 C   0  0  0  0  0  0  0  0  0  0  0  0
   -4.8150   16.0840   27.6856 C   0  0  0  0  0  0  0  0  0  0  0  0
   -7.0399   17.1571   28.2478 C   0  0  0  0  0  0  0  0  0  0  0  0
   -7.8189   16.6365   27.0285 C   0  0  1  0  0  0  0  0  0  0  0  0
   -9.2004   16.4699   27.3335 N   0  0  0  0  0  0  0  0  0  0  0  0
   -9.6205   15.6733   28.4120 C   0  0  0  0  0  0  0  0  0  0  0  0
   -8.6653   15.1835   29.1209 O   0  0  0  0  0  0  0  0  0  0  0  0
  -10.9610   15.3273   28.8362 C   0  0  1  0  0  0  0  0  0  0  0  0
  -11.4808   14.2431   27.8484 C   0  0  0  0  0  0  0  0  0  0  0  0
  -12.7827   13.7104   28.2466 C   0  0  0  0  0  0  0  0  0  0  0  0
  -13.0163   12.4470   28.7415 C   0  0  0  0  0  0  0  0  0  0  0  0
  -14.2891   12.0647   29.0808 C   0  0  0  0  0  0  0  0  0  0  0  0
  -15.3759   12.8991   28.9502 C   0  0  0  0  0  0  0  0  0  0  0  0
  -15.1646   14.1885   28.4497 C   0  0  0  0  0  0  0  0  0  0  0  0
  -13.8837   14.5572   28.1136 C   0  0  0  0  0  0  0  0  0  0  0  0
  -11.1019   14.7485   30.1438 N   0  0  0  0  0  0  0  0  0  0  0  0
  -11.9555   15.4015   31.0666 C   0  0  0  0  0  0  0  0  0  0  0  0
  -13.1730   15.6519   30.7556 O   0  0  0  0  0  0  0  0  0  0  0  0
  -11.4965   15.8213   32.4177 C   0  0  1  0  0  0  0  0  0  0  0  0
  -12.5636   15.8250   33.4564 C   0  0  0  0  0  0  0  0  0  0  0  0
  -12.5535   14.6561   34.3302 C   0  0  0  0  0  0  0  0  0  0  0  0
  -12.3927   14.8025   35.7031 C   0  0  0  0  0  0  0  0  0  0  0  0
  -12.3839   13.7181   36.5473 C   0  0  0  0  0  0  0  0  0  0  0  0
  -12.5415   12.4595   35.9887 C   0  0  0  0  0  0  0  0  0  0  0  0
  -12.7023   12.2712   34.6449 C   0  0  0  0  0  0  0  0  0  0  0  0
  -12.7066   13.3926   33.8159 C   0  0  0  0  0  0  0  0  0  0  0  0
  -10.3191   15.0784   32.8248 N   0  0  0  0  0  0  0  0  0  0  0  0
   -9.7469   15.2307   34.1063 C   0  0  0  0  0  0  0  0  0  0  0  0
  -10.2337   16.0198   34.9502 O   0  0  0  0  0  0  0  0  0  0  0  0
   -8.5343   14.4284   34.4544 C   0  0  0  0  0  0  0  0  0  0  0  0
   -8.8611   12.9462   34.4603 C   0  0  0  0  0  0  0  0  0  0  0  0
   -7.4165   14.6124   33.4586 C   0  0  0  0  0  0  0  0  0  0  0  0
   -8.0579   14.8203   35.8168 C   0  0  0  0  0  0  0  0  0  0  0  0
   -7.5193   17.4404   25.8228 C   0  0  0  0  0  0  0  0  0  0  0  0
   -7.7953   18.6556   25.6952 O   0  0  0  0  0  0  0  0  0  0  0  0
   -6.8782   16.8141   24.7208 N   0  0  0  0  0  0  0  0  0  0  0  0
   -7.3504   17.0748   23.3586 C   0  0  1  0  0  0  0  0  0  0  0  0
   -6.1718   17.6375   22.5919 C   0  0  0  0  0  0  0  0  0  0  0  0
   -5.5633   18.8000   23.2562 C   0  0  0  0  0  0  0  0  0  0  0  0
   -4.3353   18.7163   23.8686 C   0  0  0  0  0  0  0  0  0  0  0  0
   -3.7488   19.7994   24.4946 C   0  0  0  0  0  0  0  0  0  0  0  0
   -4.4024   21.0030   24.5124 C   0  0  0  0  0  0  0  0  0  0  0  0
   -5.6277   21.1371   23.9159 C   0  0  0  0  0  0  0  0  0  0  0  0
   -6.1929   20.0166   23.2903 C   0  0  0  0  0  0  0  0  0  0  0  0
   -7.8698   15.8366   22.7401 C   0  0  0  0  0  0  0  0  0  0  0  0
   -7.4760   14.7331   23.1952 O   0  0  0  0  0  0  0  0  0  0  0  0
   -8.7783   15.8731   21.6767 N   0  0  0  0  0  0  0  0  0  0  0  0
   -9.3379   14.6399   21.1629 C   0  0  0  0  0  0  0  0  0  0  0  0
   -9.2004   17.1136   21.0859 C   0  0  0  0  0  0  0  0  0  0  0  0
  1  2  1  0
  2  3  1  0
  2  4  1  0
  5  4  1  1
  5  6  1  0
  6  7  1  0
  7  8  2  0
  7  9  1  0
  9 10  1  6
 10 11  1  0
 11 12  2  0
 12 13  1  0
 13 14  2  0
 14 15  1  0
 15 16  2  0
  9 17  1  0
 17 18  1  0
 18 19  2  0
 18 20  1  0
 20 21  1  1
 21 22  1  0
 22 23  2  0
 23 24  1  0
 24 25  2  0
 25 26  1  0
 26 27  2  0
 20 28  1  0
 28 29  1  0
 29 30  2  0
 29 31  1  0
 31 32  1  0
 31 33  1  0
 31 34  1  0
  5 35  1  0
 35 36  2  0
 35 37  1  0
 37 38  1  0
 38 39  1  6
 39 40  1  0
 40 41  2  0
 41 42  1  0
 42 43  2  0
 43 44  1  0
 44 45  2  0
 38 46  1  0
 46 47  2  0
 46 48  1  0
 48 49  1  0
 48 50  1  0
 16 11  1  0
 27 22  1  0
 45 40  1  0
M  END
$$$$
