protein_ligand
     RDKit          3D

 50 52  0  0  0  0  0  0  0  0999 V2000
  -12.1820   13.9424   26.0311 C   0  0  0  0  0  0  0  0  0  0  0  0
  -11.9669   13.2516   27.3878 C   0  0  0  0  0  0  0  0  0  0  0  0
  -10.6639   12.5446   27.3311 C   0  0  0  0  0  0  0  0  0  0  0  0
  -12.1395   14.2912   28.4218 C   0  0  0  0  0  0  0  0  0  0  0  0
  -10.8338   14.7461   29.0948 C   0  0  1  0  0  0  0  0  0  0  0  0
  -10.1540   15.7120   28.2983 N   0  0  0  0  0  0  0  0  0  0  0  0
   -9.8930   17.0054   28.7813 C   0  0  0  0  0  0  0  0  0  0  0  0
  -10.2889   17.2176   29.9867 O   0  0  0  0  0  0  0  0  0  0  0  0
   -9.2490   18.1231   28.1236 C   0  0  1  0  0  0  0  0  0  0  0  0
   -7.7366   18.0464   28.4816 C   0  0  0  0  0  0  0  0  0  0  0  0
   -6.9237   18.9221   27.6393 C   0  0  0  0  0  0  0  0  0  0  0  0
   -7.3764   19.6413   26.5560 C   0  0  0  0  0  0  0  0  0  0  0  0
   -6.5107   20.4310   25.8431 C   0  0  0  0  0  0  0  0  0  0  0  0
   -5.1766   20.5472   26.1612 C   0  0  0  0  0  0  0  0  0  0  0  0
   -4.6920   19.8264   27.2581 C   0  0  0  0  0  0  0  0  0  0  0  0
   -5.5714   19.0389   27.9626 C   0  0  0  0  0  0  0  0  0  0  0  0
   -9.2985   18.1511   26.6879 N   0  0  0  0  0  0  0  0  0  0  0  0
   -9.4901   16.9223   26.0096 C   0  0  0  0  0  0  0  0  0  0  0  0
  -10.6722   16.4660   25.8201 O   0  0  0  0  0  0  0  0  0  0  0  0
   -8.3552   16.1134   25.4899 C   0  0  1  0  0  0  0  0  0  0  0  0
   -7.3567   16.8887   24.7028 C   0  0  0  0  0  0  0  0  0  0  0  0
   -6.5953   16.0898   23.7478 C   0  0  0  0  0  0  0  0  0  0  0  0
   -5.3720   15.5364   24.1074 C   0  0  0  0  0  0  0  0  0  0  0  0
   -4.6381   14.7771   23.2280 C   0  0  0  0  0  0  0  0  0  0  0  0
   -5.1547   14.5741   21.9580 C   0  0  0  0  0  0  0  0  0  0  0  0
   -6.3529   15.0998   21.5638 C   0  0  0  0  0  0  0  0  0  0  0  0
   -7.0726   15.8656   22.4804 C   0  0  0  0  0  0  0  0  0  0  0  0
   -7.7485   15.3242   26.5448 N   0  0  0  0  0  0  0  0  0  0  0  0
   -7.9098   13.9235   26.6156 C   0  0  0  0  0  0  0  0  0  0  0  0
   -7.8925   13.2103   25.5847 O   0  0  0  0  0  0  0  0  0  0  0  0
   -8.1046   13.2870   27.9543 C   0  0  0  0  0  0  0  0  0  0  0  0
   -6.9727   12.3209   28.2534 C   0  0  0  0  0  0  0  0  0  0  0  0
   -8.1095   14.2951   29.0763 C   0  0  0  0  0  0  0  0  0  0  0  0
   -9.3948   12.5307   27.9580 C   0  0  0  0  0  0  0  0  0  0  0  0
  -11.0668   15.1258   30.5059 C   0  0  0  0  0  0  0  0  0  0  0  0
  -11.1563   16.3059   30.9164 O   0  0  0  0  0  0  0  0  0  0  0  0
  -11.1986   14.1011   31.4807 N   0  0  0  0  0  0  0  0  0  0  0  0
  -11.3746   14.4554   32.8914 C   0  0  1  0  0  0  0  0  0  0  0  0
  -12.6469   13.7761   33.3532 C   0  0  0  0  0  0  0  0  0  0  0  0
  -13.8171   14.1491   32.5442 C   0  0  0  0  0  0  0  0  0  0  0  0
  -14.6520   13.1980   32.0071 C   0  0  0  0  0  0  0  0  0  0  0  0
  -15.7567   13.5318   31.2474 C   0  0  0  0  0  0  0  0  0  0  0  0
  -16.0409   14.8513   31.0143 C   0  0  0  0  0  0  0  0  0  0  0  0
  -15.2397   15.8358   31.5280 C   0  0  0  0  0  0  0  0  0  0  0  0
  -14.1269   15.4603   32.2941 C   0  0  0  0  0  0  0  0  0  0  0  0
  -10.2030   14.0305   33.6865 C   0  0  0  0  0  0  0  0  0  0  0  0
   -9.9423   12.8027   33.7535 O   0  0  0  0  0  0  0  0  0  0  0  0
   -9.3930   14.9571   34.3520 N   0  0  0  0  0  0  0  0  0  0  0  0
   -8.4948   14.5111   35.3970 C   0  0  0  0  0  0  0  0  0  0  0  0
   -9.4044   16.3532   34.0103 C   0  0  0  0  0  0  0  0  0  0  0  0
  1  2  1  0
  2  3  1  0
  2  4  1  0
  5  4  1  6
  5  6  1  0
  6  7  1  0
  7  8  2  0
  7  9  1  0
  9 10  1  6
 10 11  1  0
 11 12  2  0
 12 13  1  0
 13 14  2  0
 14 15  1  0
 15 16  2  0
  9 17  1  0
 17 18  1  0
 18 19  2  0
 18 20  1  0
 20 21  1  1
 21 22  1  0
 22 23  2  0
 23 24  1  0
 24 25  2  0
 25 26  1  0
 26 27  2  0
 20 28  1  0
 28 29  1  0
 29 30  2  0
 29 31  1  0
 31 32  1  0
 31 33  1  0
 31 34  1  0
  5 35  1  0
 35 36  2  0
 35 37  1  0
 37 38  1  0
 38 39  1  1
 39 40  1  0
 40 41  2  0
 41 42  1  0
 42 43  2  0
 43 44  1  0
 44 45  2  0
 38 46  1  0
 46 47  2  0
 46 48  1  0
 48 49  1  0
 48 50  1  0
 16 11  1  0
 27 22  1  0
 45 40  1  0
M  END
$$$$
