protein_ligand
     RDKit          3D

 50 52  0  0  0  0  0  0  0  0999 V2000
   -9.7511   14.5062   32.8016 C   0  0  0  0  0  0  0  0  0  0  0  0
   -9.1072   15.8012   33.3233 C   0  0  0  0  0  0  0  0  0  0  0  0
   -7.6370   15.6610   33.1830 C   0  0  0  0  0  0  0  0  0  0  0  0
   -9.7620   16.9148   32.6087 C   0  0  0  0  0  0  0  0  0  0  0  0
  -10.9346   16.4941   31.7073 C   0  0  1  0  0  0  0  0  0  0  0  0
  -10.4676   15.9066   30.4964 N   0  0  0  0  0  0  0  0  0  0  0  0
  -10.5604   16.5864   29.2702 C   0  0  0  0  0  0  0  0  0  0  0  0
  -11.0220   17.7841   29.3548 O   0  0  0  0  0  0  0  0  0  0  0  0
  -10.2147   16.1370   27.9379 C   0  0  1  0  0  0  0  0  0  0  0  0
  -11.4974   15.4993   27.3302 C   0  0  0  0  0  0  0  0  0  0  0  0
  -11.9017   14.2866   28.0395 C   0  0  0  0  0  0  0  0  0  0  0  0
  -11.4075   13.0215   27.8136 C   0  0  0  0  0  0  0  0  0  0  0  0
  -11.8697   11.9600   28.5490 C   0  0  0  0  0  0  0  0  0  0  0  0
  -12.8275   12.0947   29.5283 C   0  0  0  0  0  0  0  0  0  0  0  0
  -13.3456   13.3704   29.7771 C   0  0  0  0  0  0  0  0  0  0  0  0
  -12.8729   14.4244   29.0318 C   0  0  0  0  0  0  0  0  0  0  0  0
   -9.8079   17.1429   26.9959 N   0  0  0  0  0  0  0  0  0  0  0  0
   -8.5799   16.9527   26.3158 C   0  0  0  0  0  0  0  0  0  0  0  0
   -7.8873   15.8935   26.5160 O   0  0  0  0  0  0  0  0  0  0  0  0
   -8.0400   17.9487   25.3520 C   0  0  1  0  0  0  0  0  0  0  0  0
   -7.0954   18.9331   25.9490 C   0  0  0  0  0  0  0  0  0  0  0  0
   -5.7449   18.4191   26.1544 C   0  0  0  0  0  0  0  0  0  0  0  0
   -5.5443   17.1082   26.5705 C   0  0  0  0  0  0  0  0  0  0  0  0
   -4.2829   16.5995   26.7670 C   0  0  0  0  0  0  0  0  0  0  0  0
   -3.2024   17.4364   26.5366 C   0  0  0  0  0  0  0  0  0  0  0  0
   -3.3552   18.7311   26.1271 C   0  0  0  0  0  0  0  0  0  0  0  0
   -4.6488   19.2163   25.9371 C   0  0  0  0  0  0  0  0  0  0  0  0
   -7.5019   17.2978   24.1728 N   0  0  0  0  0  0  0  0  0  0  0  0
   -8.3132   16.9727   23.0642 C   0  0  0  0  0  0  0  0  0  0  0  0
   -9.5596   17.1011   23.1061 O   0  0  0  0  0  0  0  0  0  0  0  0
   -7.6615   16.4654   21.8180 C   0  0  0  0  0  0  0  0  0  0  0  0
   -6.9520   15.1507   22.0863 C   0  0  0  0  0  0  0  0  0  0  0  0
   -8.6564   16.1935   20.7174 C   0  0  0  0  0  0  0  0  0  0  0  0
   -6.6556   17.4659   21.3448 C   0  0  0  0  0  0  0  0  0  0  0  0
  -11.9298   15.7023   32.4638 C   0  0  0  0  0  0  0  0  0  0  0  0
  -13.0092   16.1584   32.9067 O   0  0  0  0  0  0  0  0  0  0  0  0
  -11.6653   14.3306   32.7208 N   0  0  0  0  0  0  0  0  0  0  0  0
  -12.4207   13.6246   33.7587 C   0  0  1  0  0  0  0  0  0  0  0  0
  -13.1930   12.5250   33.0602 C   0  0  0  0  0  0  0  0  0  0  0  0
  -14.5148   12.9674   32.5911 C   0  0  0  0  0  0  0  0  0  0  0  0
  -15.6526   12.2455   32.8635 C   0  0  0  0  0  0  0  0  0  0  0  0
  -16.9019   12.6487   32.4326 C   0  0  0  0  0  0  0  0  0  0  0  0
  -17.0246   13.8051   31.7089 C   0  0  0  0  0  0  0  0  0  0  0  0
  -15.9209   14.5594   31.4120 C   0  0  0  0  0  0  0  0  0  0  0  0
  -14.6689   14.1195   31.8654 C   0  0  0  0  0  0  0  0  0  0  0  0
  -11.5109   13.0878   34.7929 C   0  0  0  0  0  0  0  0  0  0  0  0
  -10.3332   12.8019   34.4596 O   0  0  0  0  0  0  0  0  0  0  0  0
  -11.9320   12.8985   36.1136 N   0  0  0  0  0  0  0  0  0  0  0  0
  -11.6684   11.6408   36.7819 C   0  0  0  0  0  0  0  0  0  0  0  0
  -12.6045   13.9349   36.8482 C   0  0  0  0  0  0  0  0  0  0  0  0
  1  2  1  0
  2  3  1  0
  2  4  1  0
  5  4  1  1
  5  6  1  0
  6  7  1  0
  7  8  2  0
  7  9  1  0
  9 10  1  6
 10 11  1  0
 11 12  2  0
 12 13  1  0
 13 14  2  0
 14 15  1  0
 15 16  2  0
  9 17  1  0
 17 18  1  0
 18 19  2  0
 18 20  1  0
 20 21  1  1
 21 22  1  0
 22 23  2  0
 23 24  1  0
 24 25  2  0
 25 26  1  0
 26 27  2  0
 20 28  1  0
 28 29  1  0
 29 30  2  0
 29 31  1  0
 31 32  1  0
 31 33  1  0
 31 34  1  0
  5 35  1  0
 35 36  2  0
 35 37  1  0
 37 38  1  0
 38 39  1  6
 39 40  1  0
 40 41  2  0
 41 42  1  0
 42 43  2  0
 43 44  1  0
 44 45  2  0
 38 46  1  0
 46 47  2  0
 46 48  1  0
 48 49  1  0
 48 50  1  0
 16 11  1  0
 27 22  1  0
 45 40  1  0
M  END
$$$$
